Version 4
SHEET 1 1088 680
WIRE 704 -32 640 -32
WIRE -16 96 -256 96
WIRE 704 96 704 -32
WIRE 704 96 656 96
WIRE 848 160 656 160
WIRE -16 208 -256 208
WIRE -512 224 -592 224
WIRE 160 224 400 112
WIRE 400 224 160 96
FLAG -592 224 Control_From_Teensy_Pin_30
IOPIN -592 224 In
FLAG 848 160 Filtered_RF_out
IOPIN 848 160 Out
FLAG 640 -32 Control_From_Teensy_Pin_31
IOPIN 640 -32 In
SYMBOL Final\ SDR\ schematics\ for\ SDD\ 4_28_19\\20m\ BP 112 240 R0
SYMATTR InstName X1
SYMBOL Final\ SDR\ schematics\ for\ SDD\ 4_28_19\\80m\ BP 112 112 R0
SYMATTR InstName X2
SYMBOL Final\ SDR\ schematics\ for\ SDD\ 4_28_19\\Relay_With_Control -368 160 R0
SYMATTR InstName X3
SYMBOL Final\ SDR\ schematics\ for\ SDD\ 4_28_19\\Relay_With_Control 512 160 R180
SYMATTR InstName X4
