Version 4
SHEET 1 1400 712
WIRE -320 -32 -400 -32
WIRE -480 48 -480 -32
WIRE -320 96 -320 -32
WIRE -320 96 -464 96
WIRE -176 96 -320 96
WIRE -1472 144 -1472 64
WIRE -176 144 -176 96
WIRE -464 176 -464 96
WIRE -400 272 -416 272
WIRE -288 272 -320 272
WIRE -176 272 -176 224
WIRE -176 272 -224 272
WIRE 64 272 -176 272
WIRE 304 272 128 272
WIRE 448 272 304 272
WIRE -176 320 -176 272
WIRE 304 352 304 272
WIRE -672 368 -928 368
WIRE -464 368 -464 256
WIRE -464 368 -608 368
WIRE -416 368 -416 272
WIRE -416 368 -464 368
WIRE -240 368 -416 368
WIRE -1472 432 -1472 224
WIRE -1184 432 -1472 432
WIRE -176 448 -176 416
WIRE 80 448 -176 448
WIRE -464 464 -464 368
WIRE -176 464 -176 448
WIRE -880 480 -928 480
WIRE -1184 496 -1264 496
WIRE 80 496 80 448
WIRE 304 528 304 432
WIRE -880 592 -880 480
WIRE -880 592 -896 592
WIRE -464 624 -464 544
WIRE -176 624 -176 544
WIRE 80 624 80 560
FLAG -480 48 0
FLAG -1472 64 0
FLAG -464 624 0
FLAG -176 624 0
FLAG 80 624 0
FLAG 304 528 0
FLAG 448 272 RF_Output
IOPIN 448 272 Out
FLAG -896 592 RF_Transmit_From_Mixing_Circuit
IOPIN -896 592 In
FLAG -1264 496 Control_From_Teensy_Pin_32
IOPIN -1264 496 In
SYMBOL voltage -384 -32 R90
WINDOW 0 -32 56 VBottom 2
WINDOW 3 32 56 VTop 2
WINDOW 123 0 0 Left 2
WINDOW 39 0 0 Left 2
SYMATTR InstName V1
SYMATTR Value 12V
SYMBOL res -480 160 R0
SYMATTR InstName R1
SYMATTR Value 10k
SYMBOL res -480 448 R0
SYMATTR InstName R2
SYMATTR Value 2k
SYMBOL res -192 448 R0
SYMATTR InstName RE1
SYMATTR Value 120
SYMBOL npn -240 320 R0
SYMATTR InstName Q1
SYMATTR Value 2N3904
SYMBOL voltage -1472 240 R180
WINDOW 123 24 68 Left 2
WINDOW 39 0 0 Left 2
SYMATTR Value2 AC 1 0
SYMATTR InstName Vs1
SYMATTR Value SINE(0 5uV 3.7e6 0 0 0)
SYMBOL cap -608 352 R90
WINDOW 0 0 32 VBottom 2
WINDOW 3 32 32 VTop 2
SYMATTR InstName C1
SYMATTR Value 100n
SYMBOL cap 64 496 R0
SYMATTR InstName Cb1
SYMATTR Value 100n
SYMBOL cap -224 256 R90
WINDOW 0 0 32 VBottom 2
WINDOW 3 32 32 VTop 2
SYMATTR InstName C4
SYMATTR Value 10n
SYMBOL res -304 256 R90
WINDOW 0 0 56 VBottom 2
WINDOW 3 32 56 VTop 2
SYMATTR InstName R3
SYMATTR Value 2.2k
SYMBOL ind -192 128 R0
SYMATTR InstName L1
SYMATTR Value 1mH
SYMBOL cap 128 256 R90
WINDOW 0 0 32 VBottom 2
WINDOW 3 32 32 VTop 2
SYMATTR InstName C10
SYMATTR Value 100n
SYMBOL res 288 336 R0
SYMATTR InstName R5
SYMATTR Value 10k
SYMBOL Final\ SDR\ schematics\ for\ SDD\ 4_28_19\\Relay_With_Control -1040 432 R0
SYMATTR InstName X1
TEXT -1304 120 Right 4 ;Antenna
TEXT -232 40 Left 4 ;RF Amp
