Version 4
SHEET 1 880 680
WIRE 192 -320 -256 -320
WIRE 192 -288 -256 -288
WIRE 192 -256 -256 -256
WIRE 192 -224 -256 -224
WIRE 192 -192 -256 -192
WIRE 192 -160 -256 -160
WIRE 192 -128 -256 -128
WIRE 192 -96 -256 -96
WIRE 192 -64 -256 -64
WIRE 192 -32 -256 -32
WIRE 192 0 -256 0
WIRE 192 32 -256 32
WIRE 192 64 -256 64
WIRE 192 96 -256 96
WIRE 192 128 -256 128
WIRE 192 160 -256 160
SYMBOL LCD\ Screen 464 16 R0
SYMATTR InstName X1
SYMBOL Final\ SDR\ schematics\ for\ SDD\ 4_28_19\\I2C_Adapter -560 -96 R0
SYMATTR InstName X3
