Version 4
SHEET 1 2396 788
WIRE 1104 -400 1104 -464
WIRE 1216 -400 1104 -400
WIRE 1008 -368 1008 -464
WIRE 1280 -368 1008 -368
WIRE 1040 -336 1040 -464
WIRE 1328 -336 1040 -336
WIRE 912 -304 912 -464
WIRE 912 -304 768 -304
WIRE 944 -304 944 -464
WIRE 1888 -304 944 -304
WIRE 1600 -192 1536 -192
WIRE 384 -144 320 -144
WIRE 1600 32 1600 -192
WIRE 1600 32 1360 32
WIRE 384 80 384 -144
WIRE 384 80 144 80
WIRE 1104 80 1072 80
WIRE 1248 80 1168 80
WIRE -144 128 -256 128
WIRE 32 128 -80 128
WIRE 1520 144 1360 144
WIRE 1776 144 1584 144
WIRE 1888 144 1888 -304
WIRE 1888 144 1856 144
WIRE 368 192 144 192
WIRE 592 192 432 192
WIRE 768 192 768 -304
WIRE 768 192 672 192
WIRE 1456 192 1360 192
WIRE 1456 224 1456 192
WIRE 1488 224 1456 224
WIRE 1616 224 1552 224
WIRE 1712 224 1616 224
WIRE 1952 224 1856 224
WIRE 240 240 144 240
WIRE 240 272 240 240
WIRE 368 272 304 272
WIRE 448 272 368 272
WIRE 672 272 592 272
WIRE -512 528 -656 528
WIRE -256 528 -256 128
WIRE -256 528 -352 528
WIRE 1072 592 1072 80
WIRE 1072 592 -352 592
WIRE 1616 608 1616 224
WIRE 1664 608 1616 608
WIRE 1984 608 1824 608
WIRE 368 672 368 272
WIRE 1664 672 368 672
FLAG 672 272 Audio_Frequency_to_Audio_Amp
IOPIN 672 272 Out
FLAG 1952 224 Audio_Frequency_to_Audio_Amp
IOPIN 1952 224 Out
FLAG -656 528 Filtered_RF_Input
IOPIN -656 528 In
FLAG 1984 608 RF_Transmit_to_Relay
IOPIN 1984 608 Out
FLAG 1216 -400 5V
IOPIN 1216 -400 In
FLAG 1328 -336 Teensy_Pin_18
IOPIN 1328 -336 In
FLAG 1280 -368 Teensy_Pin_19
IOPIN 1280 -368 In
SYMBOL Final\ SDR\ schematics\ for\ SDD\ 4_28_19\\Mixer 0 160 R0
SYMATTR InstName X1
SYMBOL cap 432 176 R90
WINDOW 0 0 32 VBottom 2
WINDOW 3 32 32 VTop 2
SYMATTR InstName C1
SYMATTR Value 100n
SYMBOL res 576 176 M90
WINDOW 0 0 56 VBottom 2
WINDOW 3 32 56 VTop 2
SYMATTR InstName R1
SYMATTR Value 4.7k
SYMBOL cap 304 256 R90
WINDOW 0 0 32 VBottom 2
WINDOW 3 32 32 VTop 2
SYMATTR InstName C4
SYMATTR Value 10µ
SYMBOL Final\ SDR\ schematics\ for\ SDD\ 4_28_19\\7V_Power_Regulator 176 -208 R0
SYMATTR InstName X2
SYMBOL cap -80 112 R90
WINDOW 0 0 32 VBottom 2
WINDOW 3 32 32 VTop 2
SYMATTR InstName C5
SYMATTR Value 100n
SYMBOL Final\ SDR\ schematics\ for\ SDD\ 4_28_19\\LowPass_Filter 512 288 R0
SYMATTR InstName X3
SYMBOL Final\ SDR\ schematics\ for\ SDD\ 4_28_19\\SI5351_Clock_Gen 1008 -512 R0
SYMATTR InstName X4
SYMBOL Final\ SDR\ schematics\ for\ SDD\ 4_28_19\\Mixer 1216 112 R0
SYMATTR InstName X5
SYMBOL cap 1584 128 R90
WINDOW 0 0 32 VBottom 2
WINDOW 3 32 32 VTop 2
SYMATTR InstName C2
SYMATTR Value 100n
SYMBOL res 1760 128 M90
WINDOW 0 0 56 VBottom 2
WINDOW 3 32 56 VTop 2
SYMATTR InstName R2
SYMATTR Value 4.7k
SYMBOL cap 1552 208 R90
WINDOW 0 0 32 VBottom 2
WINDOW 3 32 32 VTop 2
SYMATTR InstName C3
SYMATTR Value 10µ
SYMBOL Final\ SDR\ schematics\ for\ SDD\ 4_28_19\\7V_Power_Regulator 1392 -256 R0
SYMATTR InstName X6
SYMBOL cap 1168 64 R90
WINDOW 0 0 32 VBottom 2
WINDOW 3 32 32 VTop 2
SYMATTR InstName C6
SYMATTR Value 100n
SYMBOL Final\ SDR\ schematics\ for\ SDD\ 4_28_19\\LowPass_Filter 1776 240 R0
SYMATTR InstName X7
SYMBOL Final\ SDR\ schematics\ for\ SDD\ 4_28_19\\RF\ splitter_combiner -432 560 R0
SYMATTR InstName X8
SYMBOL Final\ SDR\ schematics\ for\ SDD\ 4_28_19\\RF\ splitter_combiner 1744 640 R0
SYMATTR InstName X9
