Version 4
SHEET 1 3932 680
WIRE -1008 -2064 -1216 -2064
WIRE -480 -2064 -688 -2064
WIRE 16 -2064 -160 -2064
WIRE -848 -1792 -848 -1936
WIRE -592 -1792 -848 -1792
WIRE -320 -1792 -320 -1936
WIRE -320 -1792 -448 -1792
WIRE 704 -1664 -208 -1664
WIRE 656 -1648 -192 -1648
WIRE -592 -1632 -592 -1792
WIRE -448 -1632 -448 -1792
WIRE 256 -1552 -336 -1552
WIRE 656 -1536 656 -1648
WIRE 704 -1536 704 -1664
WIRE 752 -1536 752 -1632
WIRE 224 -1520 -336 -1520
WIRE 192 -1424 -336 -1424
WIRE -208 -1136 -208 -1664
WIRE -208 -1136 -336 -1136
WIRE -192 -1104 -192 -1648
WIRE -192 -1104 -336 -1104
WIRE 256 -1088 256 -1552
WIRE 592 -1088 256 -1088
WIRE 880 -1040 880 -1056
WIRE 880 -1040 784 -1040
WIRE 224 -1008 224 -1520
WIRE 592 -1008 224 -1008
WIRE 192 -928 192 -1424
WIRE 592 -928 192 -928
WIRE -560 -656 -560 -864
WIRE -496 -656 -496 -864
FLAG 752 -1632 5V
IOPIN 752 -1632 In
FLAG 880 -1056 5V
IOPIN 880 -1056 In
SYMBOL Final\ SDR\ schematics\ for\ SDD\ 4_28_19\\RF_Amplifier -1248 -2048 R0
SYMATTR InstName X1
SYMBOL Final\ SDR\ schematics\ for\ SDD\ 4_28_19\\Bandpass\ Filters -880 -2048 R0
SYMATTR InstName X2
SYMBOL Final\ SDR\ schematics\ for\ SDD\ 4_28_19\\Mixing\ Circuit -288 -2080 R0
SYMATTR InstName X3
SYMBOL Final\ SDR\ schematics\ for\ SDD\ 4_28_19\\Audio_Amp_With_Speaker 112 -2096 R0
SYMATTR InstName X4
SYMBOL Final\ SDR\ schematics\ for\ SDD\ 4_28_19\\LCD_With_Adapter 880 -1424 R0
SYMATTR InstName X5
SYMBOL Final\ SDR\ schematics\ for\ SDD\ 4_28_19\\Teensy_v3.6_(Main_Pins_BackSide) -480 -1824 R0
SYMATTR InstName X6
SYMBOL Final\ SDR\ schematics\ for\ SDD\ 4_28_19\\Rotary\ Encoder 688 -1008 R0
SYMATTR InstName X7
SYMBOL Final\ SDR\ schematics\ for\ SDD\ 4_28_19\\Mic -528 -576 R0
SYMATTR InstName X8
