Version 4
SHEET 1 1236 680
SYMBOL Final\ SDR\ schematics\ for\ SDD\ 4_28_19\\Teensy_v3.6_(Main_Pins_BackSide) 736 -992 R0
SYMATTR InstName X1
SYMBOL Final\ SDR\ schematics\ for\ SDD\ 4_28_19\\Teensy_Audio_Board 1184 -960 R0
SYMATTR InstName X2
